Version 4
SHEET 1 880 680
WIRE 112 0 96 0
WIRE 224 0 192 0
WIRE 0 32 -64 32
WIRE 96 32 96 0
WIRE 96 32 80 32
WIRE 224 32 224 0
WIRE 240 32 224 32
WIRE 336 32 240 32
WIRE 96 80 96 32
WIRE 112 80 96 80
WIRE 224 80 224 32
WIRE 224 80 176 80
WIRE -64 96 -64 32
WIRE 240 96 240 32
WIRE 336 96 336 32
WIRE -64 256 -64 176
WIRE 96 256 -64 256
WIRE 240 256 240 176
WIRE 240 256 96 256
WIRE 336 256 336 160
WIRE 336 256 240 256
WIRE 96 288 96 256
FLAG 96 288 0
FLAG 336 32 Vo
SYMBOL voltage -64 80 R0
WINDOW 123 24 124 Left 2
WINDOW 39 0 0 Left 0
SYMATTR Value2 AC 1 0
SYMATTR InstName V1
SYMATTR Value ""
SYMBOL res 96 16 R90
WINDOW 0 0 56 VBottom 2
WINDOW 3 32 56 VTop 2
SYMATTR InstName R1
SYMATTR Value 2
SYMBOL res 208 -16 R90
WINDOW 0 0 56 VBottom 2
WINDOW 3 32 56 VTop 2
SYMATTR InstName R2
SYMATTR Value 4
SYMBOL cap 176 64 R90
WINDOW 0 0 32 VBottom 2
WINDOW 3 32 32 VTop 2
SYMATTR InstName C1
SYMATTR Value 0.25
SYMBOL res 224 80 R0
SYMATTR InstName R3
SYMATTR Value 0.4
SYMBOL cap 320 96 R0
SYMATTR InstName C2
SYMATTR Value 1
TEXT -96 312 Left 2 !.ac dec 100 0.001 1000
