Version 4
SHEET 1 880 680
WIRE 48 112 -16 112
WIRE 160 112 112 112
WIRE 224 112 160 112
WIRE 352 112 304 112
WIRE 464 112 416 112
WIRE 160 128 160 112
WIRE -16 176 -16 112
WIRE 160 256 160 208
WIRE -16 336 -16 256
WIRE 160 336 160 320
WIRE 160 336 -16 336
WIRE 464 336 464 112
WIRE 464 336 160 336
WIRE 160 352 160 336
FLAG 160 352 0
FLAG 464 112 Out
SYMBOL cap 112 96 R90
WINDOW 0 0 32 VBottom 2
WINDOW 3 32 32 VTop 2
SYMATTR InstName C1
SYMATTR Value 1
SYMBOL ind 144 112 R0
SYMATTR InstName L1
SYMATTR Value 0.5
SYMBOL cap 144 256 R0
SYMATTR InstName C2
SYMATTR Value 2
SYMBOL ind 208 128 R270
WINDOW 0 32 56 VTop 2
WINDOW 3 5 56 VBottom 2
SYMATTR InstName L2
SYMATTR Value 1
SYMBOL cap 416 96 R90
WINDOW 0 0 32 VBottom 2
WINDOW 3 32 32 VTop 2
SYMATTR InstName C3
SYMATTR Value 0.33333
SYMBOL voltage -16 160 R0
WINDOW 123 24 124 Left 2
WINDOW 39 0 0 Left 0
SYMATTR InstName V1
SYMATTR Value ""
SYMATTR Value2 AC 1 0
TEXT -34 50 Left 2 !.ac dec 1000 0.001 100000
