Version 4
SHEET 1 1652 680
WIRE 688 0 448 0
WIRE 784 16 752 16
WIRE 848 16 784 16
WIRE 688 32 672 32
WIRE 272 96 208 96
WIRE 304 96 272 96
WIRE 400 96 368 96
WIRE 448 96 448 0
WIRE 448 96 400 96
WIRE 464 96 448 96
WIRE 560 96 544 96
WIRE 576 96 560 96
WIRE 672 96 672 32
WIRE 672 96 656 96
WIRE 688 96 672 96
WIRE 784 96 784 16
WIRE 784 96 768 96
WIRE 800 96 784 96
WIRE 880 96 864 96
WIRE 928 96 880 96
WIRE 208 112 208 96
WIRE 400 112 400 96
WIRE 672 160 672 96
WIRE 672 160 656 160
WIRE 560 176 560 96
WIRE 592 176 560 176
WIRE 880 192 880 96
WIRE 880 192 656 192
WIRE 208 208 208 192
WIRE 400 208 400 192
WIRE 272 272 272 96
WIRE 624 272 272 272
WIRE 928 272 928 96
WIRE 928 272 704 272
FLAG 208 208 0
FLAG 400 208 0
FLAG 848 16 Vo1
SYMBOL voltage 208 96 R0
WINDOW 123 -91 96 Left 2
WINDOW 39 0 0 Left 0
WINDOW 0 -40 9 Left 2
SYMATTR Value2 AC 1 0
SYMATTR InstName V1
SYMATTR Value ""
SYMBOL cap 368 80 R90
WINDOW 0 0 32 VBottom 2
WINDOW 3 32 32 VTop 2
SYMATTR InstName C1
SYMATTR Value 1
SYMBOL Opamps\\opamp 720 80 M180
WINDOW 0 -5 100 Left 2
SYMATTR InstName U5
SYMBOL Opamps\\opamp 624 112 M0
WINDOW 0 -2 104 Left 2
SYMATTR InstName U6
SYMATTR SpiceLine2 GBW={PGB}
SYMBOL res 560 80 R90
WINDOW 0 0 56 VBottom 2
WINDOW 3 32 56 VTop 2
SYMATTR InstName R11
SYMATTR Value 1
SYMBOL res 784 80 R90
WINDOW 0 0 56 VBottom 2
WINDOW 3 32 56 VTop 2
SYMATTR InstName R12
SYMATTR Value 1
SYMBOL res 720 256 R90
WINDOW 0 0 56 VBottom 2
WINDOW 3 32 56 VTop 2
SYMATTR InstName R13
SYMATTR Value 1
SYMBOL cap 864 80 R90
WINDOW 0 0 32 VBottom 2
WINDOW 3 32 32 VTop 2
SYMATTR InstName C4
SYMATTR Value 1
SYMBOL res 672 80 R90
WINDOW 0 0 56 VBottom 2
WINDOW 3 32 56 VTop 2
SYMATTR InstName R14
SYMATTR Value 1
SYMBOL res 384 96 R0
SYMATTR InstName R1
SYMATTR Value 1
TEXT 184 312 Left 2 !.inc opamp.sub
TEXT 376 504 Left 2 !.ac dec 1000 {w0/(10*2*pi)} {w0*10/(2*pi)}
TEXT 376 376 Left 2 !.param C1=7.98/w0
TEXT 376 408 Left 2 !.param C2=14.49/w0
TEXT 376 440 Left 2 !.param C3=17.87/w0
TEXT 376 472 Left 2 !.param C=1/w0
TEXT 376 344 Left 2 !.param w0=2*pi*f0
TEXT 376 312 Left 2 !.param f0=22k
TEXT 96 344 Left 2 !.param PGB=1000Meg
